PGAz_V.Demo/pgaz_data/pgaz_data_ieee57bus.m
% IEEE 57-BUS TEST SYSTEM
% Load Flow Analysis of IEEE 30-Bus System
% 1 - Slack Bus..
% 2 - PV Bus..
% 0 - PQ Bus..

% Bus Data
%        Bus Bus      Voltage Angle   ---Load----  -------Generator-----      Static Mvar
%        No  code     Mag.    Degree   MW    Mvar  MW       Mvar  Qmin  Qmax  +Qc/-Ql
bus.con = [
    1   1   1.06    0    0.0    0.0    0.0    0.0   0   0   0; % Slack Bus
    2   2   1.043   0   21.7   12.7   40.0    0.0 -40  50   0; % PV Bus
    3   0   1.0     0    2.4    1.2    0.0    0.0   0   0   0; % PQ Bus
    4   0   1.0     0    7.6    1.6    0.0    0.0   0   0   0; % PQ Bus
    5   2   1.01    0   94.2   19.0    0.0    0.0 -40  40   0; % PV Bus
    6   0   1.0     0    0.0    0.0    0.0    0.0   0   0   0; % PQ Bus
    7   0   1.0     0   22.8   10.9    0.0    0.0   0   0   0; % PQ Bus
    8   2   1.01    0   30.0   30.0    0.0    0.0 -10  40   0; % PV Bus
    9   0   1.0     0    0.0    0.0    0.0    0.0   0   0   0; % PQ Bus
   10   0   1.0     0    5.8    2.0    0.0    0.0   0   0  19; % PQ Bus
   11   2   1.082   0    0.0    0.0    0.0    0.0  -6  24   0; % PV Bus
   12   0   1.0     0   11.2    7.5    0.0    0.0   0   0   0; % PQ Bus
   13   2   1.071   0    0.0    0.0    0.0    0.0  -6  24   0; % PV Bus
   14   0   1.0     0    6.2    1.6    0.0    0.0   0   0   0; % PQ Bus
   15   0   1.0     0    8.2    2.5    0.0    0.0   0   0   0; % PQ Bus
   16   0   1.0     0    3.5    1.8    0.0    0.0   0   0   0; % PQ Bus
   17   0   1.0     0    9.0    5.8    0.0    0.0   0   0   0; % PQ Bus
   18   0   1.0     0    3.2    0.9    0.0    0.0   0   0   0; % PQ Bus
   19   0   1.0     0    9.5    3.4    0.0    0.0   0   0   0; % PQ Bus
   20   0   1.0     0    2.2    0.7    0.0    0.0   0   0   0; % PQ Bus
   21   0   1.0     0   17.5   11.2    0.0    0.0   0   0   0; % PQ Bus
   22   0   1.0     0    0.0    0.0    0.0    0.0   0   0   0; % PQ Bus
   23   0   1.0     0    3.2    1.6    0.0    0.0   0   0   0; % PQ Bus
   24   0   1.0     0    8.7    6.7    0.0    0.0   0   0  4.3; % PQ Bus
   25   0   1.0     0    0.0    0.0    0.0    0.0   0   0   0; % PQ Bus
   26   0   1.0     0    3.5    2.3    0.0    0.0   0   0   0; % PQ Bus
   27   0   1.0     0    0.0    0.0    0.0    0.0   0   0   0; % PQ Bus
   28   0   1.0     0    0.0    0.0    0.0    0.0   0   0   0; % PQ Bus
   29   0   1.0     0    2.4    0.9    0.0    0.0   0   0   0; % PQ Bus
   30   0   1.0     0   10.6    1.9    0.0    0.0   0   0   0; % PQ Bus
   31   0   1.0     0    3.7    1.8    0.0    0.0   0   0   0; % PQ Bus
   32   0   1.0     0   12.0    6.0    0.0    0.0   0   0   0; % PQ Bus
   33   0   1.0     0    5.0    2.3    0.0    0.0   0   0   0; % PQ Bus
   34   0   1.0     0    4.5    1.5    0.0    0.0   0   0   0; % PQ Bus
   35   0   1.0     0    6.0    3.0    0.0    0.0   0   0   0; % PQ Bus
   36   0   1.0     0    4.2    1.9    0.0    0.0   0   0   0; % PQ Bus
   37   0   1.0     0    2.5    1.2    0.0    0.0   0   0   0; % PQ Bus
   38   0   1.0     0    7.3    3.2    0.0    0.0   0   0   0; % PQ Bus
   39   0   1.0     0    6.5    2.8    0.0    0.0   0   0   0; % PQ Bus
   40   0   1.0     0    4.8    2.2    0.0    0.0   0   0   0; % PQ Bus
   41   0   1.0     0    3.0    1.3    0.0    0.0   0   0   0; % PQ Bus
   42   0   1.0     0    5.5    2.1    0.0    0.0   0   0   0; % PQ Bus
   43    0  1.0     0    4.7    2.0    0.0    0.0   0   0   0; % PQ Bus
   44    0  1.0     0    3.9    1.7    0.0    0.0   0   0   0; % PQ Bus
   45    0  1.0     0    5.2    2.5    0.0    0.0   0   0   0; % PQ Bus
   46    0  1.0     0    4.6    1.8    0.0    0.0   0   0   0; % PQ Bus
   47    0  1.0     0    6.8    3.5    0.0    0.0   0   0   0; % PQ Bus
   48    0  1.0     0    7.4    2.8    0.0    0.0   0   0   0; % PQ Bus
   49    0  1.0     0    6.0    2.9    0.0    0.0   0   0   0; % PQ Bus
   50    0  1.0     0    5.1    2.4    0.0    0.0   0   0   0; % PQ Bus
   51    0  1.0     0    7.2    3.6    0.0    0.0   0   0   0; % PQ Bus
   52    0  1.0     0    6.1    2.7    0.0    0.0   0   0   0; % PQ Bus
   53    0  1.0     0    5.8    2.3    0.0    0.0   0   0   0; % PQ Bus
   54    0  1.0     0    6.2    2.8    0.0    0.0   0   0   0; % PQ Bus
   55    0  1.0     0    5.4    2.2    0.0    0.0   0   0   0; % PQ Bus
   56    0  1.0     0    6.6    3.1    0.0    0.0   0   0   0; % PQ Bus
   57    0  1.0     0   12.6    5.7    0.0    0.0   0   0   0; % PQ Bus
];

% Line Data
%        Bus bus   R        X     1/2 B     = 1 for lines
%        nl  nr   p.u.     p.u.    p.u.     > 1 or < 1 tr. tap at bus nl
line.con = [
    1   2   0.0192   0.0575   0.0264   1;
    1   3   0.0452   0.1852   0.0204   1;
    2   4   0.0570   0.1737   0.0184   1;
    3   4   0.0132   0.0379   0.0042   1;
    2   5   0.0472   0.1983   0.0209   1;
    2   6   0.0581   0.1763   0.0187   1;
    4   6   0.0119   0.0414   0.0045   1;
    5   7   0.0460   0.1160   0.0102   1;
    6   7   0.0267   0.0820   0.0085   1;
    6   8   0.0120   0.0420   0.0045   1;
    6   9   0.0000   0.2080   0.0000   0.978;
    6  10   0.0000   0.5560   0.0000   0.969;
    9  11   0.0000   0.2080   0.0000   1;
    9  10   0.0000   0.1100   0.0000   1;
    4  12   0.0000   0.2560   0.0000   0.932;
   12  13   0.0000   0.1400   0.0000   1;
   12  14   0.1231   0.2559   0.0000   1;
   12  15   0.0662   0.1304   0.0000   1;
   12  16   0.0945   0.1987   0.0000   1;
   14  15   0.2210   0.1997   0.0000   1;
   16  17   0.0824   0.1923   0.0000   1;
   15  18   0.1073   0.2185   0.0000   1;
   18  19   0.0639   0.1292   0.0000   1;
   19  20   0.0340   0.0680   0.0000   1;
   10  20   0.0936   0.2090   0.0000   1;
   10  17   0.0324   0.0845   0.0000   1;
   10  21   0.0348   0.0749   0.0000   1;
   10  22   0.0727   0.1499   0.0000   1;
   21  22   0.0116   0.0236   0.0000   1;
   15  23   0.1000   0.2020   0.0000   1;
   22  24   0.1150   0.1790   0.0000   1;
   23  24   0.1320   0.2700   0.0000   1;
   24  25   0.1885   0.3292   0.0000   1;
   25  26   0.2544   0.3800   0.0000   1;
   25  27   0.1093   0.2087   0.0000   1;
   28  27   0.0000   0.3960   0.0000   0.968;
   27  29   0.2198   0.4153   0.0000   1;
   27  30   0.3202   0.6027   0.0000   1;
   29  30   0.2399   0.4533   0.0000   1;
    8  28   0.0636   0.2000   0.0214   1;
    6  28   0.0169   0.0599   0.0650   1;
   30  31   0.1234   0.2456   0.0000   1;
   31  32   0.0987   0.2003   0.0000   1;
   32  33   0.0678   0.1450   0.0000   1;
   33  34   0.0456   0.1234   0.0000   1;
   34  35   0.0809   0.1703   0.0000   1;
   35  36   0.0587   0.1397   0.0000   1;
   36  37   0.0901   0.1809   0.0000   1;
   37  38   0.0672   0.1500   0.0000   1;
   38  39   0.0567   0.1205   0.0000   1;
   39  40   0.0734   0.1602   0.0000   1;
   40  41   0.0670   0.1407   0.0000   1;
   41  42   0.0783   0.1574   0.0000   1;
   42  43   0.0560   0.1234   0.0000   1;
   43  44   0.0590   0.1456   0.0000   1;
   44  45   0.0670   0.1350   0.0000   1;
   45  46   0.0556   0.1212   0.0000   1;
   46  47   0.0734   0.1407   0.0000   1;
   47  48   0.0670   0.1345   0.0000   1;
   48  49   0.0801   0.1750   0.0000   1;
   49  50   0.0609   0.1403   0.0000   1;
   50  51   0.0723   0.1567   0.0000   1;
   51  52   0.0562   0.1309   0.0000   1;
   52  53   0.0670   0.1407   0.0000   1;
   53  54   0.0734   0.1574   0.0000   1;
   54  55   0.0690   0.1445   0.0000   1;
   55  56   0.0756   0.1609   0.0000   1;
   56  57   0.0834   0.1750   0.0000   1;
];

